11
 energy: -25.834384441649 gnorm: 0.000555738874 xtb: 6.7.1 (ec4f388)
H            1.67563536990347       -0.78052988256945        2.57495192936467
C           -0.87624049012718        0.14251641338829        2.69997088525993
C           -1.04663890969777       -0.11612679488042       -3.64498646862541
N           -2.53365234151586        0.69820177626550        0.79869013546760
N           -0.96336339573465        0.85048621958934       -2.97953846056541
O           -0.17057065608770       -0.66047083674245        0.16316941775321
Co           0.46080719830077       -0.49843954311546        1.77643319306720
Ge          -2.47001453208139        1.13912535351916        2.58793099118236
Ge          -1.74473263145453       -1.14326284163718        1.06674602470318
Ta          -2.05897503678746        0.92706952115500       -0.98464167485184
Hg          -2.62777249911582       -2.17266596429265       -2.42805346829841
